# generated using pymatgen
data_LiCoO2
_symmetry_space_group_name_H-M   R-3m
_cell_length_a   2.83339708
_cell_length_b   2.83339708
_cell_length_c   14.09250220
_cell_angle_alpha   90.00000000
_cell_angle_beta   90.00000000
_cell_angle_gamma   120.00000000
_symmetry_Int_Tables_number   166
_chemical_formula_structural   LiCoO2
_chemical_formula_sum   'Li3 Co3 O6'
_cell_volume   97.9791411419
_cell_formula_units_Z   3
loop_
 _symmetry_equiv_pos_site_id
 _symmetry_equiv_pos_as_xyz
  1  'x, y, z'
  2  '-x+2/3, -y+1/3, -z+1/3'
  3  '-y, x-y, z'
  4  'y+2/3, -x+y+1/3, -z+1/3'
  5  '-x+y, -x, z'
  6  'x-y+2/3, x+1/3, -z+1/3'
  7  'y+2/3, x+1/3, -z+1/3'
  8  '-y, -x, z'
  9  'x-y+2/3, -y+1/3, -z+1/3'
  10  '-x+y, y, z'
  11  '-x+2/3, -x+y+1/3, -z+1/3'
  12  'x, x-y, z'
  13  'x+2/3, y+1/3, z+1/3'
  14  '-x+1/3, -y+2/3, -z+2/3'
  15  '-y+2/3, x-y+1/3, z+1/3'
  16  'y+1/3, -x+y+2/3, -z+2/3'
  17  '-x+y+2/3, -x+1/3, z+1/3'
  18  'x-y+1/3, x+2/3, -z+2/3'
  19  'y+1/3, x+2/3, -z+2/3'
  20  '-y+2/3, -x+1/3, z+1/3'
  21  'x-y+1/3, -y+2/3, -z+2/3'
  22  '-x+y+2/3, y+1/3, z+1/3'
  23  '-x+1/3, -x+y+2/3, -z+2/3'
  24  'x+2/3, x-y+1/3, z+1/3'
  25  'x+1/3, y+2/3, z+2/3'
  26  '-x, -y, -z'
  27  '-y+1/3, x-y+2/3, z+2/3'
  28  'y, -x+y, -z'
  29  '-x+y+1/3, -x+2/3, z+2/3'
  30  'x-y, x, -z'
  31  'y, x, -z'
  32  '-y+1/3, -x+2/3, z+2/3'
  33  'x-y, -y, -z'
  34  '-x+y+1/3, y+2/3, z+2/3'
  35  '-x, -x+y, -z'
  36  'x+1/3, x-y+2/3, z+2/3'
loop_
 _atom_site_type_symbol
 _atom_site_label
 _atom_site_symmetry_multiplicity
 _atom_site_fract_x
 _atom_site_fract_y
 _atom_site_fract_z
 _atom_site_occupancy
  Li  Li1  3  0.333333  0.666667  0.166667  1
  Co  Co2  3  0.333333  0.666667  0.666667  1
  O  O3  6  0.000000  0.000000  0.739815  1
